This is my first file.
New line.
Yet, another line.